26
Generated by autodE on: 2022-02-09. E = -34.395638 Ha
C     1.20094   1.76419   0.97483
N     1.22322   0.34507   0.72803
C     2.55322  -0.18808   0.49924
C     2.32486  -1.56634  -0.13519
C     0.85938  -1.54053  -0.59749
C     0.43314  -0.07433  -0.41909
C    -1.03946   0.06545  -0.17451
C    -1.91539   0.44488  -1.18286
C    -3.26965   0.53418  -0.90430
C    -3.69557   0.24335   0.38188
N    -2.87204  -0.11716   1.35244
C    -1.58440  -0.20565   1.07852
H     0.17391   2.08080   1.15242
H     1.61038   2.34805   0.13267
H     1.79167   1.97803   1.86462
H     3.12982   0.45812  -0.18699
H     3.09262  -0.24234   1.44697
H     3.00580  -1.72514  -0.97051
H     2.48732  -2.36274   0.58856
H     0.73584  -1.87301  -1.62661
H     0.24444  -2.17069   0.04456
H     0.70778   0.50334  -1.32547
H    -1.54132   0.66849  -2.17299
H    -3.97540   0.82616  -1.66698
H    -4.74151   0.30150   0.65364
H    -0.93958  -0.49561   1.89700
