11
Generated by autodE on: 2022-02-09. E = -10.500823 Ha
C     1.27376  -0.09591   0.10549
C    -0.04763   0.53542  -0.31597
C    -1.23832  -0.30410   0.13021
H     2.11222   0.52218  -0.20555
H     1.38698  -1.07983  -0.34516
H     1.31282  -0.20909   1.18626
H    -0.12654   1.53484   0.11827
H    -0.06702   0.64394  -1.40278
H    -1.25434  -0.39467   1.21451
H    -2.17286   0.15112  -0.19076
H    -1.17909  -1.30390  -0.29451
