19
Generated by autodE on: 2022-02-09. E = -33.380999 Ha
O    -3.60653   1.61942  -0.45954
C    -2.40216   1.66624  -0.40968
C    -1.51506   0.53222  -0.16009
C    -2.04571  -0.73834   0.05427
C    -1.21252  -1.81157   0.29147
C     0.16373  -1.63153   0.31719
O     0.97727  -2.68212   0.54965
C     0.70938  -0.34815   0.09948
O     2.08223  -0.30251   0.14866
C     2.71291   0.93543  -0.07258
C    -0.12818   0.72062  -0.13606
H    -1.86716   2.62702  -0.55860
H    -3.11725  -0.86034   0.03046
H    -1.60130  -2.80262   0.46012
H     1.89384  -2.37057   0.53051
H     2.48674   1.32451  -1.06948
H     2.42214   1.67159   0.68283
H     3.78125   0.73983   0.00599
H     0.26639   1.71087  -0.30459
